data_crystal

_cell_length_a    24.11900
_cell_length_b    10.20560
_cell_length_c    10.81930
_cell_angle_alpha 90.00000
_cell_angle_beta  91.64000
_cell_angle_gamma 90.00000

_symmetry_space_group_name_Hall 'P 1'
_symmetry_space_group_name_H-M  'P 1'

loop_
_symmetry_equiv_pos_as_xyz
 'x,y,z'

loop_
_atom_site_label
_atom_site_type_symbol
_atom_site_fract_x
_atom_site_fract_y
_atom_site_fract_z
Cu         Cu      0.19753   0.02795   0.23868
Cu         Cu      0.69753   0.52795   0.23868
Cu         Cu      0.80247   0.02795   0.26132
Cu         Cu      0.30247   0.52795   0.26132
Cu         Cu      0.69753   0.47205   0.73868
Cu         Cu      0.19753   0.97205   0.73868
Cu         Cu      0.30247   0.47205   0.76132
Cu         Cu      0.80247   0.97205   0.76132
O          O       0.90090   0.17420   0.01060
O          O       0.40090   0.67420   0.01060
O          O       0.69210   0.34170   0.01100
O          O       0.19210   0.84170   0.01100
O          O       0.85840   0.03710   0.09980
O          O       0.35840   0.53710   0.09980
O          O       0.63770   0.44510   0.10830
O          O       0.13770   0.94510   0.10830
O          O       0.04920   0.45520   0.11690
O          O       0.54920   0.95520   0.11690
O          O       0.12010   0.02100   0.19800
O          O       0.62010   0.52100   0.19800
O          O       0.87990   0.02100   0.30200
O          O       0.37990   0.52100   0.30200
O          O       0.95080   0.45520   0.38310
O          O       0.45080   0.95520   0.38310
O          O       0.36230   0.44510   0.39170
O          O       0.86230   0.94510   0.39170
O          O       0.14160   0.03710   0.40020
O          O       0.64160   0.53710   0.40020
O          O       0.30790   0.34170   0.48900
O          O       0.80790   0.84170   0.48900
O          O       0.09910   0.17420   0.48940
O          O       0.59910   0.67420   0.48940
O          O       0.40090   0.32580   0.51060
O          O       0.90090   0.82580   0.51060
O          O       0.19210   0.15830   0.51100
O          O       0.69210   0.65830   0.51100
O          O       0.35840   0.46290   0.59980
O          O       0.85840   0.96290   0.59980
O          O       0.13770   0.05490   0.60830
O          O       0.63770   0.55490   0.60830
O          O       0.54920   0.04480   0.61690
O          O       0.04920   0.54480   0.61690
O          O       0.62010   0.47900   0.69800
O          O       0.12010   0.97900   0.69800
O          O       0.37990   0.47900   0.80200
O          O       0.87990   0.97900   0.80200
O          O       0.45080   0.04480   0.88310
O          O       0.95080   0.54480   0.88310
O          O       0.86230   0.05490   0.89170
O          O       0.36230   0.55490   0.89170
O          O       0.64160   0.46290   0.90020
O          O       0.14160   0.96290   0.90020
O          O       0.80790   0.15830   0.98900
O          O       0.30790   0.65830   0.98900
O          O       0.59910   0.32580   0.98940
O          O       0.09910   0.82580   0.98940
N          N       0.64930   0.40600   0.00070
N          N       0.14930   0.90600   0.00070
N          N       0.64370   0.36900   0.02400
N          N       0.14370   0.86900   0.02400
N          N       0.20510   0.20400   0.17000
N          N       0.70510   0.70400   0.17000
N          N       0.24920   0.40730   0.18100
N          N       0.74920   0.90730   0.18100
N          N       0.03700   0.10000   0.20100
N          N       0.53700   0.60000   0.20100
N          N       0.96300   0.10000   0.29900
N          N       0.46300   0.60000   0.29900
N          N       0.75080   0.40730   0.31900
N          N       0.25080   0.90730   0.31900
N          N       0.79490   0.20400   0.33000
N          N       0.29490   0.70400   0.33000
N          N       0.35630   0.36900   0.47600
N          N       0.85630   0.86900   0.47600
N          N       0.35070   0.40600   0.49930
N          N       0.85070   0.90600   0.49930
N          N       0.14930   0.09400   0.50070
N          N       0.64930   0.59400   0.50070
N          N       0.14370   0.13100   0.52400
N          N       0.64370   0.63100   0.52400
N          N       0.70510   0.29600   0.67000
N          N       0.20510   0.79600   0.67000
N          N       0.74920   0.09270   0.68100
N          N       0.24920   0.59270   0.68100
N          N       0.53700   0.40000   0.70100
N          N       0.03700   0.90000   0.70100
N          N       0.46300   0.40000   0.79900
N          N       0.96300   0.90000   0.79900
N          N       0.25080   0.09270   0.81900
N          N       0.75080   0.59270   0.81900
N          N       0.29490   0.29600   0.83000
N          N       0.79490   0.79600   0.83000
N          N       0.85630   0.13100   0.97600
N          N       0.35630   0.63100   0.97600
N          N       0.85070   0.09400   0.99930
N          N       0.35070   0.59400   0.99930
C          C       0.18260   0.36520   0.01690
C          C       0.68260   0.86520   0.01690
C          C       0.51710   0.04260   0.04540
C          C       0.01710   0.54260   0.04540
C          C       0.03500   0.11900   0.06200
C          C       0.53500   0.61900   0.06200
C          C       0.17660   0.24160   0.06760
C          C       0.67660   0.74160   0.06760
C          C       0.22100   0.44320   0.07800
C          C       0.72100   0.94320   0.07800
C          C       0.34980   0.09090   0.09190
C          C       0.84980   0.59090   0.09190
C          C       0.85940   0.45990   0.11270
C          C       0.35940   0.95990   0.11270
C          C       0.37360   0.17930   0.17620
C          C       0.87360   0.67930   0.17620
C          C       0.89350   0.41970   0.20960
C          C       0.39350   0.91970   0.20960
C          C       0.58310   0.00500   0.21040
C          C       0.08310   0.50500   0.21040
C          C       0.23980   0.28870   0.22220
C          C       0.73980   0.78870   0.22220
C          C       0.59260   0.13680   0.22540
C          C       0.09260   0.63680   0.22540
C          C       0.01500   0.14200   0.23400
C          C       0.51500   0.64200   0.23400
C          C       0.91700   0.04800   0.23500
C          C       0.41700   0.54800   0.23500
C          C       0.08300   0.04800   0.26500
C          C       0.58300   0.54800   0.26500
C          C       0.98500   0.14200   0.26600
C          C       0.48500   0.64200   0.26600
C          C       0.40740   0.13680   0.27460
C          C       0.90740   0.63680   0.27460
C          C       0.76020   0.28870   0.27780
C          C       0.26020   0.78870   0.27780
C          C       0.41690   0.00500   0.28960
C          C       0.91690   0.50500   0.28960
C          C       0.10650   0.41970   0.29040
C          C       0.60650   0.91970   0.29040
C          C       0.62640   0.17930   0.32380
C          C       0.12640   0.67930   0.32380
C          C       0.14060   0.45990   0.38730
C          C       0.64060   0.95990   0.38730
C          C       0.65020   0.09090   0.40810
C          C       0.15020   0.59090   0.40810
C          C       0.77900   0.44320   0.42200
C          C       0.27900   0.94320   0.42200
C          C       0.82340   0.24160   0.43240
C          C       0.32340   0.74160   0.43240
C          C       0.96500   0.11900   0.43800
C          C       0.46500   0.61900   0.43800
C          C       0.48290   0.04260   0.45460
C          C       0.98290   0.54260   0.45460
C          C       0.81740   0.36520   0.48310
C          C       0.31740   0.86520   0.48310
C          C       0.68260   0.13480   0.51690
C          C       0.18260   0.63480   0.51690
C          C       0.01710   0.45740   0.54540
C          C       0.51710   0.95740   0.54540
C          C       0.53500   0.38100   0.56200
C          C       0.03500   0.88100   0.56200
C          C       0.67660   0.25840   0.56760
C          C       0.17660   0.75840   0.56760
C          C       0.72100   0.05680   0.57800
C          C       0.22100   0.55680   0.57800
C          C       0.84980   0.40910   0.59190
C          C       0.34980   0.90910   0.59190
C          C       0.35940   0.04010   0.61270
C          C       0.85940   0.54010   0.61270
C          C       0.87360   0.32070   0.67620
C          C       0.37360   0.82070   0.67620
C          C       0.39350   0.08030   0.70960
C          C       0.89350   0.58030   0.70960
C          C       0.08310   0.49500   0.71040
C          C       0.58310   0.99500   0.71040
C          C       0.73980   0.21130   0.72220
C          C       0.23980   0.71130   0.72220
C          C       0.09260   0.36320   0.72540
C          C       0.59260   0.86320   0.72540
C          C       0.51500   0.35800   0.73400
C          C       0.01500   0.85800   0.73400
C          C       0.41700   0.45200   0.73500
C          C       0.91700   0.95200   0.73500
C          C       0.58300   0.45200   0.76500
C          C       0.08300   0.95200   0.76500
C          C       0.48500   0.35800   0.76600
C          C       0.98500   0.85800   0.76600
C          C       0.90740   0.36320   0.77460
C          C       0.40740   0.86320   0.77460
C          C       0.26020   0.21130   0.77780
C          C       0.76020   0.71130   0.77780
C          C       0.91690   0.49500   0.78960
C          C       0.41690   0.99500   0.78960
C          C       0.60650   0.08030   0.79040
C          C       0.10650   0.58030   0.79040
C          C       0.12640   0.32070   0.82380
C          C       0.62640   0.82070   0.82380
C          C       0.64060   0.04010   0.88730
C          C       0.14060   0.54010   0.88730
C          C       0.15020   0.40910   0.90810
C          C       0.65020   0.90910   0.90810
C          C       0.27900   0.05680   0.92200
C          C       0.77900   0.55680   0.92200
C          C       0.32340   0.25840   0.93240
C          C       0.82340   0.75840   0.93240
C          C       0.46500   0.38100   0.93800
C          C       0.96500   0.88100   0.93800
C          C       0.98290   0.45740   0.95460
C          C       0.48290   0.95740   0.95460
C          C       0.31740   0.13480   0.98310
C          C       0.81740   0.63480   0.98310
H          H       0.54060   0.10240   0.00100
H          H       0.04060   0.60240   0.00100
H          H       0.00640   0.06480   0.02530
H          H       0.50640   0.56480   0.02530
H          H       0.15200   0.18290   0.02960
H          H       0.65200   0.68290   0.02960
H          H       0.07020   0.09390   0.03020
H          H       0.57020   0.59390   0.03020
H          H       0.02760   0.20910   0.04180
H          H       0.52760   0.70910   0.04180
H          H       0.72790   0.02590   0.04570
H          H       0.22790   0.52590   0.04570
H          H       0.84260   0.39790   0.06100
H          H       0.34260   0.89790   0.06100
H          H       0.49290   0.09320   0.09730
H          H       0.99290   0.59320   0.09730
H          H       0.91280   0.04610   0.14630
H          H       0.41280   0.54610   0.14630
H          H       0.00710   0.14120   0.14680
H          H       0.50710   0.64120   0.14680
H          H       0.36680   0.26840   0.16640
H          H       0.86680   0.76840   0.16640
H          H       0.57670   0.19690   0.17040
H          H       0.07670   0.69690   0.17040
H          H       0.74100   0.26240   0.20630
H          H       0.24100   0.76240   0.20630
H          H       0.90060   0.33070   0.21980
H          H       0.40060   0.83070   0.21980
H          H       0.97920   0.23070   0.23850
H          H       0.47920   0.73070   0.23850
H          H       0.95170   0.09210   0.24840
H          H       0.45170   0.59210   0.24840
H          H       0.04830   0.09210   0.25160
H          H       0.54830   0.59210   0.25160
H          H       0.02080   0.23070   0.26150
H          H       0.52080   0.73070   0.26150
H          H       0.09940   0.33070   0.28020
H          H       0.59940   0.83070   0.28020
H          H       0.25900   0.26240   0.29370
H          H       0.75900   0.76240   0.29370
H          H       0.42330   0.19690   0.32960
H          H       0.92330   0.69690   0.32960
H          H       0.63320   0.26840   0.33360
H          H       0.13320   0.76840   0.33360
H          H       0.99290   0.14120   0.35320
H          H       0.49290   0.64120   0.35320
H          H       0.08720   0.04610   0.35370
H          H       0.58720   0.54610   0.35370
H          H       0.50710   0.09320   0.40270
H          H       0.00710   0.59320   0.40270
H          H       0.15740   0.39790   0.43900
H          H       0.65740   0.89790   0.43900
H          H       0.27210   0.02590   0.45430
H          H       0.77210   0.52590   0.45430
H          H       0.97240   0.20910   0.45820
H          H       0.47240   0.70910   0.45820
H          H       0.92980   0.09390   0.46980
H          H       0.42980   0.59390   0.46980
H          H       0.84800   0.18290   0.47040
H          H       0.34800   0.68290   0.47040
H          H       0.99360   0.06480   0.47470
H          H       0.49360   0.56480   0.47470
H          H       0.45940   0.10240   0.49900
H          H       0.95940   0.60240   0.49900
H          H       0.04060   0.39760   0.50100
H          H       0.54060   0.89760   0.50100
H          H       0.50640   0.43520   0.52530
H          H       0.00640   0.93520   0.52530
H          H       0.65200   0.31710   0.52960
H          H       0.15200   0.81710   0.52960
H          H       0.57020   0.40610   0.53020
H          H       0.07020   0.90610   0.53020
H          H       0.52760   0.29090   0.54180
H          H       0.02760   0.79090   0.54180
H          H       0.22790   0.47410   0.54570
H          H       0.72790   0.97410   0.54570
H          H       0.34260   0.10210   0.56100
H          H       0.84260   0.60210   0.56100
H          H       0.99290   0.40680   0.59730
H          H       0.49290   0.90680   0.59730
H          H       0.41280   0.45390   0.64630
H          H       0.91280   0.95390   0.64630
H          H       0.50710   0.35880   0.64680
H          H       0.00710   0.85880   0.64680
H          H       0.86680   0.23160   0.66640
H          H       0.36680   0.73160   0.66640
H          H       0.07670   0.30310   0.67040
H          H       0.57670   0.80310   0.67040
H          H       0.24100   0.23760   0.70630
H          H       0.74100   0.73760   0.70630
H          H       0.40060   0.16930   0.71980
H          H       0.90060   0.66930   0.71980
H          H       0.47920   0.26930   0.73850
H          H       0.97920   0.76930   0.73850
H          H       0.45170   0.40790   0.74840
H          H       0.95170   0.90790   0.74840
H          H       0.54830   0.40790   0.75160
H          H       0.04830   0.90790   0.75160
H          H       0.52080   0.26930   0.76150
H          H       0.02080   0.76930   0.76150
H          H       0.59940   0.16930   0.78020
H          H       0.09940   0.66930   0.78020
H          H       0.75900   0.23760   0.79370
H          H       0.25900   0.73760   0.79370
H          H       0.92330   0.30310   0.82960
H          H       0.42330   0.80310   0.82960
H          H       0.13320   0.23160   0.83360
H          H       0.63320   0.73160   0.83360
H          H       0.49290   0.35880   0.85320
H          H       0.99290   0.85880   0.85320
H          H       0.58720   0.45390   0.85370
H          H       0.08720   0.95390   0.85370
H          H       0.00710   0.40680   0.90270
H          H       0.50710   0.90680   0.90270
H          H       0.65740   0.10210   0.93900
H          H       0.15740   0.60210   0.93900
H          H       0.77210   0.47410   0.95430
H          H       0.27210   0.97410   0.95430
H          H       0.47240   0.29090   0.95820
H          H       0.97240   0.79090   0.95820
H          H       0.42980   0.40610   0.96980
H          H       0.92980   0.90610   0.96980
H          H       0.34800   0.31710   0.97040
H          H       0.84800   0.81710   0.97040
H          H       0.49360   0.43520   0.97470
H          H       0.99360   0.93520   0.97470
H          H       0.95940   0.39760   0.99900
H          H       0.45940   0.89760   0.99900
